FoamFile
{
    version 2.0;
    format ascii;
    class dictionary;
    location "system";
    object controlDict;
}

application simpleFoam;
startFrom startTime;
startTime 0;
endTime 100;
deltaT 1;
