/*--------------------------------*- C++ -*----------------------------------*\
| =========                 |                                                 |
| \\      /  F ield         | OpenFOAM: The Open Source CFD Toolbox           |
|  \\    /   O peration     | Version:  2206                                  |
|   \\  /    A nd           | Website:  www.openfoam.com                      |
|    \\/     M anipulation  |                                                 |
\*---------------------------------------------------------------------------*/
// * * * * * * * * * * * * * * * * * * * * * * * * * * * * * * * * * * * * * //
FoamFile        FoamFile { version 1 ; format ascii ; class dictionary ; location "constant" ; object hTCProperties ; };

hTC2Model       laminar2<rho2ChemistryHTC>;

active          active on;

laminar2Coeffs
{
}

mixtureOutputs
{
    molarFraction   off;
    numberDensity   off;
    partialDensity  off;
    partialPressure off;
    degreesOfFreedom off;
    vibrationalEnergy off;
}


// ************************************************************************* //
