FoamFile
{
    version 2.0;
    format ascii;
    class polyBoundaryMesh;
    location "constant/polyMesh";
    object boundary;
}
3
(
    inlet
    {
        type patch;
        nFaces 10;
        startFace 0;
    }
    outlet
    {
        type patch;
        nFaces 10;
        startFace 10;
    }
    fixedWalls
    {
        type empty;
        nFaces 20;
        startFace 20;
    }
)
